data/radial_test/case15da.m
function mpc = case15da
%CASE15DA

%% MATPOWER Case Format : Version 2
mpc.version = '2';

%%-----  Power Flow Data  -----%%
%% system MVA base
mpc.baseMVA = 1;

%% bus data
%	bus_i	type	Pd	Qd	Gs	Bs	area	Vm	Va	baseKV	zone	Vmax	Vmin
mpc.bus = [
	1	3	0	0	0	0	1	1	0	11	1	1	1;
	2	1	0.0441	0.044991	0	0	1	1	0	11	1	1.1	0.9;
	3	1	0.07	0.0714143	0	0	1	1	0	11	1	1.1	0.9;
	4	1	0.14	0.1428286	0	0	1	1	0	11	1	1.1	0.9;
	5	1	0.0441	0.044991	0	0	1	1	0	11	1	1.1	0.9;
	6	1	0.14	0.1428286	0	0	1	1	0	11	1	1.1	0.9;
	7	1	0.14	0.1428286	0	0	1	1	0	11	1	1.1	0.9;
	8	1	0.07	0.0714143	0	0	1	1	0	11	1	1.1	0.9;
	9	1	0.07	0.0714143	0	0	1	1	0	11	1	1.1	0.9;
	10	1	0.0441	0.044991	0	0	1	1	0	11	1	1.1	0.9;
	11	1	0.14	0.1428286	0	0	1	1	0	11	1	1.1	0.9;
	12	1	0.07	0.0714143	0	0	1	1	0	11	1	1.1	0.9;
	13	1	0.0441	0.044991	0	0	1	1	0	11	1	1.1	0.9;
	14	1	0.07	0.0714143	0	0	1	1	0	11	1	1.1	0.9;
	15	1	0.14	0.1428286	0	0	1	1	0	11	1	1.1	0.9;
];

%% generator data
%	bus	Pg	Qg	Qmax	Qmin	Vg	mBase	status	Pmax	Pmin	Pc1	Pc2	Qc1min	Qc1max	Qc2min	Qc2max	ramp_agc	ramp_10	ramp_30	ramp_q	apf
mpc.gen = [
	1	0	0	10	-10	1	100	1	10	0	0	0	0	0	0	0	0	0	0	0	0;
];

%% branch data
%	fbus	tbus	r	x	b	rateA	rateB	rateC	ratio	angle	status	angmin	angmax
mpc.branch = [
	1	2	0.011182562	0.0109379339	0	0	0	0	0	0	1	-360	360;
	2	3	0.00967140496	0.00945983471	0	0	0	0	0	0	1	-360	360;
	3	4	0.00695132231	0.0067992562	0	0	0	0	0	0	1	-360	360;
	4	5	0.0125907438	0.00849256198	0	0	0	0	0	0	1	-360	360;
	2	9	0.0166377686	0.011222314	0	0	0	0	0	0	1	-360	360;
	9	10	0.0139397521	0.00940247934	0	0	0	0	0	0	1	-360	360;
	2	6	0.0211344628	0.0142553719	0	0	0	0	0	0	1	-360	360;
	6	7	0.00899338843	0.0060661157	0	0	0	0	0	0	1	-360	360;
	6	8	0.0103423967	0.00697603306	0	0	0	0	0	0	1	-360	360;
	3	11	0.0148390909	0.0100090909	0	0	0	0	0	0	1	-360	360;
	11	12	0.020235124	0.0136487603	0	0	0	0	0	0	1	-360	360;
	12	13	0.0166377686	0.011222314	0	0	0	0	0	0	1	-360	360;
	4	14	0.0184364463	0.0124355372	0	0	0	0	0	0	1	-360	360;
	4	15	0.00989272727	0.00667272727	0	0	0	0	0	0	1	-360	360;
];

%%-----  OPF Data  -----%%
%% generator cost data
%	1	startup	shutdown	n	x1	y1	...	xn	yn
%	2	startup	shutdown	n	c(n-1)	...	c0
mpc.gencost = [
	2	0	0	3	0	20	0;
];
